examples/national_grid/data/ireland/models/2008/wp2011.raw
<!DOCTYPE HTML PUBLIC "-//W3C//DTD HTML 4.0 Transitional//EN">
<!-- saved from url=(0082)http://www.eirgrid.com/EirgridPortal/uploads/Publications/Winter%20Peak%202011.raw -->
<HTML><HEAD>
<META http-equiv=Content-Type content="text/html; charset=windows-1252">
<META content="MSHTML 6.00.2900.3492" name=GENERATOR></HEAD>
<BODY><PRE>0,   100.00          / PSS/E-30.3    WED, NOV 26 2008  12:20
/ CASE: 2011/2012;  WINTER 01/12/2011; FORECAST STATEMENT 20
/ FS08_SEP08 - MEMO  GALLERY_T;  15:59:28  TUESDAY, SEPTEMBE
    10,'F_M_____    ',  38.0000,1,     0.000,     0.000,   1,   3,1.04500, -15.8427,   2
    11,'FMN_LOOP    ',  38.0000,1,     0.000,     0.000,   1,   1,1.02568, -18.9543,   2
    12,'BEDFORD     ',  38.0000,1,     0.000,     0.000,   1,   1,1.05201, -13.3584,   2
    13,'M_R_____    ',  38.0000,1,     0.000,     0.000,   1,   1,1.04500, -13.4936,   2
    14,'F_I_____    ',  38.0000,1,     0.000,     0.000,   1,   3,1.03158, -12.3033,   2
    15,'I_M_____    ',  38.0000,1,     0.000,     0.000,   1,   1,1.02443, -12.0959,   2
  1021,'ARDNACRU    ', 110.0000,1,     0.000,     0.000,   4,   1,1.04512,  -2.8536,   1
  1041,'AGHADA      ', 110.0000,1,     0.000,     0.000,   3,   1,1.05596,   0.1117,   1
  1042,'AGHADA      ', 220.0000,1,     0.000,     0.000,   3,   1,1.07500,   9.4626,   1
  1052,'AGHADA2     ', 220.0000,1,     0.000,     0.000,   3,   1,1.07500,   2.3186,   1
  1061,'ARIGNA      ', 110.0000,1,     0.000,     0.000,   9,   1,1.06465,  -8.7424,   2
  1062,'AGHADA3     ', 220.0000,1,     0.000,     0.000,   3,   1,1.07500,   2.3186,   1
  1071,'AGANNYGA    ', 110.0000,1,     0.000,     0.000,   4,   1,1.06505,  -4.6565,   1
  1072,'AGHADA4     ', 220.0000,1,     0.000,     0.000,   3,   1,1.07455,  11.0519,   1
  1081,'AHANE       ', 110.0000,1,     0.000,     0.000,   7,   1,1.04698,  -2.0461,   2
  1091,'ADAMSTOW    ', 110.0000,1,     0.000,     0.000,   1,   1,1.06110,  -7.3161,   2
  1101,'ANNER       ', 110.0000,1,     0.000,     0.000,   5,   3,1.03968, -10.7382,   5
  1121,'ARKLOW      ', 110.0000,1,     0.000,     0.000,   6,   1,1.06266, -10.0981,   1
  1122,'ARKLOW      ', 220.0000,1,     0.000,     0.000,   6,   1,1.02889,  -7.4647,   1
  1131,'ATHEA       ', 110.0000,1,     0.000,     0.000,   7,   5,1.07500,   2.2474,   4
  1141,'ATHLONE     ', 110.0000,1,     0.000,     0.000,   9,   1,1.07895,  -7.6738,   1
  1161,'AUGHINIS    ', 110.0000,1,     0.000,     0.000,   7,   3,1.07500,   3.0126,   1
  1181,'ARVA        ', 110.0000,1,     0.000,     0.000,  10,   1,1.05953, -11.3496,   1
  1201,'ARTANE      ', 110.0000,1,     0.000,     0.000,   1,   1,1.03591,  -9.6323,   2
  1221,'ATHY        ', 110.0000,1,     0.000,     0.000,   8,   1,1.03262, -11.5289,   1
  1231,'BALLYWAT    ', 110.0000,1,     0.000,     0.000,   6,   1,1.05854,  -9.7480,   4
  1241,'BALLYCUM    ', 110.0000,1,     0.000,     0.000,   7,   1,1.04263,  -1.7351,   1
  1251,'BOOLTIAG    ', 110.0000,1,     0.000,     0.000,   4,   1,1.03496,  -4.5157,   2
  1271,'BALTRASN    ', 110.0000,1,     0.000,     0.000,  10,   1,1.04599,  -9.5709,   1
  1281,'BALLYLIC    ', 110.0000,1,     0.000,     0.000,   3,   1,1.03261,  -1.5233,   2
  1301,'BALLYBEG    ', 110.0000,1,     0.000,     0.000,   6,   1,1.04376, -11.2823,   1
  1321,'BLAKE       ', 110.0000,1,     0.000,     0.000,   8,   1,1.02271, -10.6347,   2
  1331,'BALLYCAD    ', 110.0000,1,     0.000,     0.000,   6,   1,1.05277,  -8.9012,   1
  1341,'BINBANE     ', 110.0000,1,     0.000,     0.000,   9,   1,1.02479, -10.0884,   2
  1351,'BARODA      ', 110.0000,1,     0.000,     0.000,   8,   1,1.02531, -11.2286,   1
  1361,'BALLYDIN    ', 110.0000,1,     0.000,     0.000,   5,   1,1.04369, -10.5431,   1
  1371,'BALLYMUR    ', 110.0000,1,     0.000,     0.000,   4,   1,1.03370,  -4.4932,   2
  1381,'BARNAHEL    ', 110.0000,1,     0.000,     0.000,   3,   1,1.04872,  -0.6155,   1
  1391,'BARNAHEL    ', 110.0000,1,     0.000,     0.000,   3,   1,1.05144,  -1.0333,   1
  1401,'BELLACOR    ', 110.0000,1,     0.000,     0.000,   9,   1,1.06561, -11.5458,   1
  1421,'BLACKROC    ', 110.0000,1,     0.000,     0.000,   1,   2,1.02565, -11.5063,   2
  1441,'BANDON      ', 110.0000,1,     0.000,     0.000,   3,   1,1.03993,  -2.1553,   1
  1461,'BARRYMOR    ', 110.0000,1,     0.000,     0.000,   5,   1,1.04224,  -3.1851,   2
  1471,'BALGRIFF    ', 110.0000,1,     0.000,     0.000,   1,   1,1.06346,  -7.4108,   2
  1472,'BALGRIFF    ', 220.0000,1,     0.000,     0.000,   1,   1,1.07492,  -4.5443,   2
  1481,'BUTLERST    ', 110.0000,1,     0.000,     0.000,   5,   1,1.05190, -10.5875,   1
  1501,'BRINNY      ', 110.0000,1,     0.000,     0.000,   3,   1,1.03979,  -2.1638,   5
  1511,'BRINNY      ', 110.0000,1,     0.000,     0.000,   3,   1,1.03980,  -2.1634,   5
  1541,'BANOGE      ', 110.0000,1,     0.000,     0.000,   6,   1,1.05198, -10.3224,   1
  1571,'BUNBEG      ', 110.0000,1,     0.000,     0.000,   9,   1,1.00190, -11.6518,   2
  1581,'CABRA       ', 110.0000,1,     0.000,     0.000,   1,   2,1.03448,  -9.7250,   2
  1601,'CLASHAVO    ', 110.0000,1,     0.000,     0.000,   3,   1,1.05435,   0.1291,   1
  1602,'CLASHAVO    ', 220.0000,1,     0.000,     0.000,   3,   1,1.06121,   4.8495,   1
  1611,'CLONKEEN    ', 110.0000,1,     0.000,     0.000,   7,   1,1.06615,   0.5678,   1
  1621,'COOLROE     ', 110.0000,1,     0.000,     0.000,   3,   1,1.04417,  -0.8863,   1
  1631,'CORDERRY    ', 110.0000,1,     0.000,     0.000,   9,   1,1.06748,  -8.5240,   1
  1641,'CASHLA      ', 110.0000,1,     0.000,     0.000,   9,   1,1.06749,  -4.8425,   1
  1642,'CASHLA      ', 220.0000,1,     0.000,     0.000,   9,   1,1.06383,  -0.8153,   1
  1651,'CLAHANE     ', 110.0000,1,     0.000,     0.000,   7,   5,1.07420,   1.5513,   1
  1661,'CASTLEBA    ', 110.0000,1,     0.000,     0.000,   9,   1,1.05889, -10.9915,   1
  1681,'CARRIGAD    ', 110.0000,1,     0.000,     0.000,   3,   1,1.05047,  -0.4133,   1
  1691,'CENTRAL     ', 110.0000,1,     0.000,     0.000,   1,   1,1.02717, -11.3510,   1
  1701,'CATH_FAL    ', 110.0000,1,     0.000,     0.000,   9,   1,1.05000,  -9.5159,   1
  1711,'CROMCAST    ', 110.0000,1,     0.000,     0.000,   1,   1,1.06265,  -7.4805,   1
  1721,'CAHIR       ', 110.0000,1,     0.000,     0.000,   5,   1,1.04804,  -9.5032,   1
  1731,'CROMCAST    ', 110.0000,1,     0.000,     0.000,   1,   1,1.06265,  -7.4805,   1
  1741,'CARRICKM    ', 110.0000,1,     0.000,     0.000,   2,   2,1.02734, -11.3378,   2
  1742,'CARRICKM    ', 220.0000,1,     0.000,     0.000,   2,   2,1.06638,  -5.2289,   1
  1751,'CARRICKM    ', 110.0000,1,     0.000,     0.000,   2,   1,1.06638,  -5.2289,   1
  1761,'CLIFF       ', 110.0000,1,     0.000,     0.000,   9,   1,1.05062,  -9.4221,   1
  1781,'CASTLEFA    ', 110.0000,1,     0.000,     0.000,   7,   3,1.07464,   2.9950,   5
  1791,'CASTLEFA    ', 110.0000,1,     0.000,     0.000,   7,   3,1.07463,   2.9939,   5
  1801,'COOKSTOW    ', 110.0000,1,     0.000,     0.000,   1,   2,1.05370,  -7.8638,   2
  1811,'COOKSTOW    ', 110.0000,1,     0.000,     0.000,   1,   1,1.01294, -12.3386,   1
  1821,'CLOON       ', 110.0000,1,     0.000,     0.000,   9,   1,1.06200,  -7.4258,   1
  1831,'CAMUS       ', 110.0000,1,     0.000,     0.000,   9,   1,1.04850,  -6.3495,   2
  1841,'CRANE       ', 110.0000,1,     0.000,     0.000,   6,   1,1.05240,  -9.8809,   1
  1851,'CHERRYWO    ', 110.0000,1,     0.000,     0.000,   2,   1,1.02517, -11.4444,   1
  1861,'CARICKON    ', 110.0000,1,     0.000,     0.000,   9,   1,1.06472,  -9.0466,   1
  1871,'COLLEGE     ', 110.0000,1,     0.000,     0.000,   2,   1,1.06405,  -8.0176,   1
  1881,'CHARLEVI    ', 110.0000,1,     0.000,     0.000,   3,   1,1.01368,  -2.7609,   1
  1901,'CARLOW      ', 110.0000,1,     0.000,     0.000,   6,   1,1.04926, -11.5297,   1
  1921,'COW CROS    ', 110.0000,1,     0.000,     0.000,   3,   1,1.04756,  -0.4839,   1
  1931,'CUNGHILL    ', 110.0000,1,     0.000,     0.000,   9,   1,1.07394, -10.0834,   4
  1941,'CUSHALIN    ', 110.0000,1,     0.000,     0.000,   8,   1,1.06487,  -8.7872,   1
  1951,'CARROWBE    ', 110.0000,1,     0.000,     0.000,   9,   1,1.04539, -11.7421,   1
  1961,'CASTLEVI    ', 110.0000,1,     0.000,     0.000,   3,   1,1.04675,  -0.1337,   1
  1971,'COOMAGEA    ', 110.0000,1,     0.000,     0.000,   7,   1,1.06832,   0.8151,   4
  1981,'CORRACLA    ', 110.0000,1,     0.000,     0.000,   9,   1,1.05494, -11.5746,   1
  1991,'CASTLEDO    ', 110.0000,1,     0.000,     0.000,   6,   1,1.05466,  -9.0122,   1
  2001,'CULLENAG    ', 110.0000,1,     0.000,     0.000,   5,   1,1.06074,  -9.5965,   1
  2002,'CULLENAG    ', 220.0000,1,     0.000,     0.000,   5,   1,1.00509,  -6.7642,   1
  2021,'CITY WES    ', 110.0000,1,     0.000,     0.000,   1,   1,1.05284,  -7.9067,   2
  2031,'CHARLESL    ', 110.0000,1,     0.000,     0.000,   6,   1,1.03008, -11.7577,   1
  2041,'CORDUFF     ', 110.0000,1,     0.000,     0.000,   2,   1,1.06487,  -7.9246,   1
  2042,'CORDUFF     ', 220.0000,1,     0.000,     0.000,   2,   1,1.07443,  -4.0964,   1
  2051,'CORDUFF     ', 110.0000,1,     0.000,     0.000,   2,   1,1.06487,  -7.9246,   1
  2081,'DUNKETTL    ', 110.0000,4,     0.000,     0.000,   3,   1,1.00000,   0.0000,   5
  2101,'DUNDALK     ', 110.0000,1,     0.000,     0.000,  10,   1,1.05217,  -9.9358,   2
  2121,'DRUMLINE    ', 110.0000,1,     0.000,     0.000,   4,   1,1.03432,  -4.4587,   1
  2141,'DUNGARVA    ', 110.0000,1,     0.000,     0.000,   5,   1,1.04827,  -6.6270,   1
  2161,'DOON        ', 110.0000,1,     0.000,     0.000,   5,   1,1.04027, -10.7042,   1
  2181,'DRYBRIDG    ', 110.0000,1,     0.000,     0.000,  10,   1,1.03256, -10.8528,   1
  2202,'DUNSTOWN    ', 220.0000,1,     0.000,     0.000,   2,   7,1.06766,  -4.5291,   1
  2204,'DUNSTOWN    ', 380.0000,1,     0.000,     0.000,   2,   1,1.02089,  -1.2564,   1
  2221,'DUNMANWA    ', 110.0000,1,     0.000,     0.000,   3,   1,1.04099,  -1.4972,   1
  2231,'DERRYBRI    ', 110.0000,1,     0.000,     0.000,   4,   1,1.06919,  -4.4105,   2
  2241,'DALLOW      ', 110.0000,1,     0.000,     0.000,   5,   1,1.05460,  -7.1113,   2
  2251,'DARDISTO    ', 110.0000,1,     0.000,     0.000,   1,   1,1.06304,  -7.4757,   1
  2261,'DERRYIRO    ', 110.0000,1,     0.000,     0.000,   8,   1,1.03932,  -9.6362,   1
  2281,'DALTON      ', 110.0000,1,     0.000,     0.000,   9,   1,1.05666,  -9.7663,   1
  2301,'DUNFIRTH    ', 110.0000,1,     0.000,     0.000,   8,   1,1.04203,  -9.1581,   2
  2321,'DRUMKEEN    ', 110.0000,1,     0.000,     0.000,   9,   1,1.03253, -10.1451,   1
  2361,'ENNIS       ', 110.0000,1,     0.000,     0.000,   4,   1,1.03525,  -4.8246,   1
  2481,'FASS EAS    ', 110.0000,1,     0.000,     0.000,   2,   2,1.01892, -11.7787,   2
  2491,'FASS WES    ', 110.0000,1,     0.000,     0.000,   2,   2,1.01933, -11.7572,   2
  2521,'FLAGFORD    ', 110.0000,1,     0.000,     0.000,   9,   1,1.06625,  -8.8961,   1
  2522,'FLAGFORD    ', 220.0000,1,     0.000,     0.000,   9,   7,1.06219,  -6.1308,   1
  2531,'FINNSTOW    ', 110.0000,1,     0.000,     0.000,   1,   1,1.06115,  -7.3118,   1
  2532,'FINNSTOW    ', 220.0000,1,     0.000,     0.000,   2,   1,1.06940,  -5.4072,   1
  2541,'FRN ST A    ', 110.0000,1,     0.000,     0.000,   1,   2,1.05984,  -9.0619,   2
  2551,'FRN ST B    ', 110.0000,1,     0.000,     0.000,   1,   2,1.05352,  -7.8577,   2
  2561,'FIN_URBA    ', 110.0000,1,     0.000,     0.000,   2,   2,1.03944,  -9.3875,   1
  2562,'FINGLAS     ', 220.0000,1,     0.000,     0.000,   2,   7,1.07500,  -4.2472,   1
  2571,'FIN_RURA    ', 110.0000,1,     0.000,     0.000,   2,   2,1.06273,  -7.4362,   1
  2581,'FIN_SUBU    ', 110.0000,1,     0.000,     0.000,   2,   1,1.06389,  -8.0476,   1
  2591,'FIN_OPEN    ', 110.0000,1,     0.000,     0.000,   2,   1,1.07500,  -4.2472,   2
  2671,'GARVAGH     ', 110.0000,1,     0.000,     0.000,   9,   1,1.07254,  -8.3388,   4
  2681,'GILRA       ', 110.0000,1,     0.000,     0.000,   9,   3,1.06752,  -9.1898,   2
  2701,'GLASMORE    ', 110.0000,1,     0.000,     0.000,   1,   2,1.03813,  -8.4877,   2
  2721,'GRIFFINR    ', 110.0000,1,     0.000,     0.000,   2,   2,1.04434,  -8.9013,   2
  2731,'GLANLEE     ', 110.0000,1,     0.000,     0.000,   7,   5,1.06840,   0.8316,   4
  2741,'GREAT IS    ', 110.0000,1,     0.000,     0.000,   6,   1,1.06180, -10.6829,   1
  2742,'GREAT IS    ', 220.0000,1,     0.000,     0.000,   6,   7,1.00229,  -7.7959,   1
  2761,'GRANGE      ', 110.0000,1,     0.000,     0.000,   1,   2,1.06138,  -7.5198,   2
  2771,'GARROW      ', 110.0000,1,     0.000,     0.000,   7,   1,1.06929,   0.6335,   7
  2781,'GALWAY      ', 110.0000,1,     0.000,     0.000,   9,   1,1.05113,  -5.6567,   1
  2801,'GOLAGH      ', 110.0000,1,     0.000,     0.000,   9,   1,1.04097,  -9.7689,   4
  2821,'GORTAWEE    ', 110.0000,1,     0.000,     0.000,   9,   1,1.05495, -11.9499,   1
  2841,'GORMAN      ', 110.0000,1,     0.000,     0.000,  10,   1,1.04137, -10.5818,   1
  2842,'GORMAN      ', 220.0000,1,     0.000,     0.000,  10,   1,1.05467,  -6.7776,   1
  2852,'GLANAGOW    ', 220.0000,1,     0.000,     0.000,   3,   1,1.07548,   2.4125,   1
  2861,'GRANGE C    ', 110.0000,1,     0.000,     0.000,   1,   1,1.06089,  -7.3277,   2
  2881,'GLENLARA    ', 110.0000,1,     0.000,     0.000,   3,   1,1.00337,  -2.5866,   2
  2941,'HAROLDS     ', 110.0000,1,     0.000,     0.000,   1,   2,1.06003,  -9.0422,   2
  2951,'HEUSTON     ', 110.0000,1,     0.000,     0.000,   1,   1,1.05393,  -7.8384,   1
  2962,'HUNTSTOW    ', 220.0000,1,     0.000,     0.000,   2,   1,1.07556,  -4.1474,   4
  2972,'HUNTSTOW    ', 220.0000,1,     0.000,     0.000,   2,   1,1.07569,  -3.7435,   4
  2981,'HARNETTS    ', 110.0000,1,     0.000,     0.000,   3,   1,1.04961,  -0.4717,   2
  3061,'INISCARR    ', 110.0000,1,     0.000,     0.000,   3,   1,1.04680,  -0.7678,   1
  3081,'INCH_CIT    ', 110.0000,1,     0.000,     0.000,   1,   2,1.05466,  -7.7900,   2
  3082,'INCHICOR    ', 220.0000,1,     0.000,     0.000,   2,   2,1.07335,  -5.3206,   1
  3091,'INCH_COU    ', 110.0000,1,     0.000,     0.000,   1,   1,1.06300,  -7.1475,   2
  3101,'IKERRIN     ', 110.0000,1,     0.000,     0.000,   5,   1,1.03574, -10.6016,   2
  3122,'IRISHTOW    ', 220.0000,1,     0.000,     0.000,   2,   1,1.07500,  -4.5039,   1
  3201,'KNOCKRAH    ', 110.0000,1,     0.000,     0.000,   3,   1,1.05069,   0.2797,   1
  3202,'KNOCKRAH    ', 220.0000,1,     0.000,     0.000,   3,   7,1.06117,   6.7547,   1
  3211,'KNOCKRAH    ', 110.0000,1,     0.000,     0.000,   3,   1,1.05069,   0.2797,   1
  3212,'KNOCKRAH    ', 220.0000,1,     0.000,     0.000,   3,   1,1.05590,   0.1865,   1
  3221,'KILBARRY    ', 110.0000,1,     0.000,     0.000,   3,   1,1.03484,  -1.2324,   1
  3241,'KILTEEL     ', 110.0000,1,     0.000,     0.000,   8,   1,1.03366, -10.9729,   2
  3261,'KILKENNY    ', 110.0000,1,     0.000,     0.000,   6,   1,1.01815, -14.0539,   1
  3281,'KILLONAN    ', 110.0000,1,     0.000,     0.000,   7,   1,1.04744,  -2.0042,   1
  3282,'KILLONAN    ', 220.0000,1,     0.000,     0.000,   7,   7,1.04729,   1.1583,   1
  3301,'KNOCKERA    ', 110.0000,1,     0.000,     0.000,   7,   1,1.05343,  -0.2811,   1
  3321,'KNOCKUMB    ', 110.0000,1,     0.000,     0.000,  10,   3,1.03421, -11.1757,   5
  3341,'KELLIS      ', 110.0000,1,     0.000,     0.000,   6,   1,1.05577, -11.3022,   1
  3342,'KELLIS      ', 220.0000,1,     0.000,     0.000,   6,   1,1.01707,  -7.6179,   1
  3361,'KILTOY      ', 110.0000,1,     0.000,     0.000,   9,   3,1.02617, -10.6844,   5
  3381,'KINNEGAD    ', 110.0000,1,     0.000,     0.000,   8,   1,1.03825,  -9.6609,   1
  3401,'KILLOTER    ', 110.0000,1,     0.000,     0.000,   5,   1,1.05391, -10.6081,   1
  3421,'KILMORE     ', 110.0000,1,     0.000,     0.000,   1,   1,1.06263,  -7.4801,   2
  3431,'KILMAHUD    ', 110.0000,1,     0.000,     0.000,   1,   1,1.06061,  -7.3442,   1
  3441,'KILMURRY    ', 110.0000,1,     0.000,     0.000,   6,   1,1.05238, -11.2994,   1
  3501,'LANESBOR    ', 110.0000,1,     0.000,     0.000,   9,   1,1.07419,  -8.3429,   1
  3521,'LOUTH       ', 110.0000,1,     0.000,     0.000,  10,   1,1.07614,  -9.0605,   1
  3522,'LOUTH       ', 220.0000,1,     0.000,     0.000,  10,   7,1.05603,  -6.0558,   1
  3541,'LIMERICK    ', 110.0000,1,     0.000,     0.000,   7,   1,1.04106,  -2.1065,   1
  3561,'LISDRUM     ', 110.0000,1,     0.000,     0.000,  10,   1,1.06430, -11.6083,   1
  3572,'LONGPOIN    ', 220.0000,1,     0.000,     0.000,   3,   1,1.07500,  11.1278,   1
  3581,'LETTERKE    ', 110.0000,1,     0.000,     0.000,   9,   1,1.02616, -10.6841,   1
  3601,'LIBERTY     ', 110.0000,1,     0.000,     0.000,   3,   1,1.03506,  -1.4100,   2
  3611,'LIBERTY     ', 110.0000,1,     0.000,     0.000,   3,   1,1.03540,  -1.4026,   2
  3621,'LISHEEN     ', 110.0000,1,     0.000,     0.000,   5,   1,1.03320, -12.0926,   5
  3641,'LODGEWOO    ', 110.0000,1,     0.000,     0.000,   6,   1,1.05321,  -9.0600,   1
  3642,'LODGEWOO    ', 220.0000,1,     0.000,     0.000,   6,   1,1.02100,  -7.9848,   1
  3751,'MISERY H    ', 110.0000,1,     0.000,     0.000,   1,   1,1.06065,  -8.9824,   2
  3761,'MACETOWN    ', 110.0000,1,     0.000,     0.000,   1,   2,1.06292,  -8.0983,   1
  3781,'MCDERMOT    ', 110.0000,1,     0.000,     0.000,   1,   2,1.03460,  -9.7118,   2
  3801,'MIDLETON    ', 110.0000,1,     0.000,     0.000,   3,   1,1.04218,  -0.2727,   1
  3821,'MEATH HI    ', 110.0000,1,     0.000,     0.000,  10,   1,1.04998, -10.1436,   2
  3841,'MAYNOOTH    ', 110.0000,1,     0.000,     0.000,   2,   2,1.04713,  -8.7475,   1
  3842,'MAYNOOTH    ', 220.0000,1,     0.000,     0.000,   2,   7,1.06497,  -5.6232,   1
  3851,'MAYNOOTH    ', 110.0000,1,     0.000,     0.000,   2,   2,1.05316,  -8.0257,   1
  3852,'MAYNOOTH    ', 220.0000,1,     0.000,     0.000,   2,   2,1.06813,  -5.1070,   1
  3861,'MILLTOWN    ', 110.0000,1,     0.000,     0.000,   1,   2,1.06145,  -8.9109,   2
  3871,'MILLTOWN    ', 110.0000,1,     0.000,     0.000,   1,   2,1.05058,  -8.0222,   2
  3881,'MACROOM     ', 110.0000,1,     0.000,     0.000,   3,   1,1.05060,  -0.3977,   1
  3901,'MONETEEN    ', 110.0000,1,     0.000,     0.000,   7,   1,1.04515,  -1.1932,   1
  3934,'MNYPG1      ', 380.0000,1,     0.000,     6.000,   4,   1,1.07500,   4.5969,   1
...
0 / END OF BUS DATA, BEGIN LOAD DATA
    10,'LD',1,   1,   1,    84.750,    21.400,     0.000,     0.000,     0.000,     0.000,   2
    11,'LD',1,   1,   1,   122.570,    27.730,     0.000,     0.000,     0.000,     0.000,   2
    12,'LD',1,   1,   1,    55.120,     3.120,     0.000,     0.000,     0.000,     0.000,   2
    13,'LD',1,   1,   1,    58.820,    22.420,     0.000,     0.000,     0.000,     0.000,   2
    14,'LD',1,   1,   1,    60.940,    28.140,     0.000,     0.000,     0.000,     0.000,   2
    15,'LD',1,   1,   1,    66.680,    36.780,     0.000,     0.000,     0.000,     0.000,   2
  1041,'LD',1,   3,   1,     1.700,     0.560,     0.000,     0.000,     0.000,     0.000,   2
  1101,'DM',1,   5,   2,    11.000,     3.840,     0.000,     0.000,     0.000,     0.000,   5
  1101,'MI',0,   5,   2,     5.620,     1.680,     0.000,     0.000,     0.000,     0.000,   5
  3621,'DM',1,   5,   2,    19.000,     6.200,     0.000,     0.000,     0.000,     0.000,   5
  4341,'DM',1,   3,   2,     0.280,     0.100,     0.000,     0.000,     0.000,     0.000,   5
 10204,'LD',1,   4,   1,    13.010,     8.030,     0.000,     0.000,     0.000,     0.000,   2
 10205,'LD',1,   4,   1,    79.350,    33.910,     0.000,     0.000,     0.000,     0.000,   2
 10471,'HL',1,   3,   1,    11.550,     4.150,     0.000,     0.000,     0.000,     0.000,   3
 10475,'HL',0,   3,   1,     0.300,     0.100,     0.000,     0.000,     0.000,     0.000,   3
 10602,'LD',1,   9,   1,     6.310,     2.070,     0.000,     0.000,     0.000,     0.000,   2
 10801,'LD',1,   7,   1,     7.060,     1.710,     0.000,     0.000,     0.000,     0.000,   2
 10901,'LD',1,   1,   1,     7.360,     2.390,     0.000,     0.000,     0.000,     0.000,   2
 11201,'LD',1,   6,   1,     2.510,     0.680,     0.000,     0.000,     0.000,     0.000,   2
 11204,'LD',1,   6,   1,    36.110,    13.790,     0.000,     0.000,     0.000,     0.000,   2
 11404,'LD',1,   9,   1,    75.940,    21.760,     0.000,     0.000,     0.000,     0.000,   2
 12001,'LD',1,   1,   1,    19.570,     5.980,     0.000,     0.000,     0.000,     0.000,   2
 12202,'LD',1,   8,   1,    21.300,     7.010,     0.000,     0.000,     0.000,     0.000,   2
 12402,'LD',1,   7,   1,    11.390,     3.420,     0.000,     0.000,     0.000,     0.000,   2
 12702,'DM',1,  10,   2,     6.000,     2.000,     0.000,     0.000,     0.000,     0.000,   5
 12702,'LD',1,  10,   1,    17.090,     4.560,     0.000,     0.000,     0.000,     0.000,   2
 12804,'LD',1,   3,   1,    13.680,     4.610,     0.000,     0.000,     0.000,     0.000,   2
 13001,'LD',1,   6,   1,    16.520,     3.940,     0.000,     0.000,     0.000,     0.000,   2
 13204,'LD',1,   8,   1,    36.000,    18.680,     0.000,     0.000,     0.000,     0.000,   2
 13302,'LD',1,   6,   1,     6.830,     2.050,     0.000,     0.000,     0.000,     0.000,   2
 13404,'LD',1,   9,   1,    15.820,     9.230,     0.000,     0.000,     0.000,     0.000,   2
 13501,'DM',1,   8,   2,    19.000,     5.900,     0.000,     0.000,     0.000,     0.000,   5
 13601,'DM',1,   5,   2,     5.900,     1.900,     0.000,     0.000,     0.000,     0.000,   5
 13601,'MI',0,   5,   2,     1.220,     0.360,     0.000,     0.000,     0.000,     0.000,   5
 13604,'LD',1,   5,   1,    13.210,     3.650,     0.000,     0.000,     0.000,     0.000,   2
 13701,'LD',1,   4,   1,    12.990,     3.990,     0.000,     0.000,     0.000,     0.000,   2
 13802,'LD',1,   3,   1,    28.520,     8.100,     0.000,     0.000,     0.000,     0.000,   2
 13804,'LD',1,   3,   1,    25.040,     7.110,     0.000,     0.000,     0.000,     0.000,   2
 14002,'LD',1,   9,   1,     6.150,     2.320,     0.000,     0.000,     0.000,     0.000,   2
 14204,'LD',1,   1,   1,    41.460,     5.140,     0.000,     0.000,     0.000,     0.000,   2
 14401,'LD',1,   3,   1,    12.480,     4.100,     0.000,     0.000,     0.000,     0.000,   2
 14404,'LD',1,   3,   1,    23.010,     6.930,     0.000,     0.000,     0.000,     0.000,   2
 14604,'LD',1,   5,   1,    28.890,     6.880,     0.000,     0.000,     0.000,     0.000,   2
 14804,'LD',1,   5,   1,    54.450,    14.240,     0.000,     0.000,     0.000,     0.000,   2
 15001,'DM',1,   3,   2,     4.200,     1.400,     0.000,     0.000,     0.000,     0.000,   5
 15001,'MI',0,   3,   2,     1.970,     0.590,     0.000,     0.000,     0.000,     0.000,   5
 15402,'LD',1,   6,   1,    17.880,     5.880,     0.000,     0.000,     0.000,     0.000,   2
 15704,'LD',1,   9,   1,    16.930,     5.620,     0.000,     0.000,     0.000,     0.000,   2
 15801,'LD',1,   1,   1,    20.660,     5.550,     0.000,     0.000,     0.000,     0.000,   2
 16202,'LD',1,   3,   1,    12.190,     3.540,     0.000,     0.000,     0.000,     0.000,   2
 16604,'LD',1,   9,   1,    40.360,    14.670,     0.000,     0.000,     0.000,     0.000,   2
 16901,'LD',1,   1,   1,     6.490,     2.280,     0.000,     0.000,     0.000,     0.000,   2
 17004,'LD',1,   9,   1,    19.160,     6.890,     0.000,     0.000,     0.000,     0.000,   2
 17204,'DM',1,   5,   2,     2.900,     1.000,     0.000,     0.000,     0.000,     0.000,   5
 17204,'LD',1,   5,   1,    25.560,     5.470,     0.000,     0.000,     0.000,     0.000,   2
 17404,'LD',1,   2,   1,    94.660,    19.580,     0.000,     0.000,     0.000,     0.000,   2
 17802,'DM',1,   7,   2,    44.000,    14.500,     0.000,     0.000,     0.000,     0.000,   5
 17802,'MI',0,   7,   2,     5.000,     1.500,     0.000,     0.000,     0.000,     0.000,   5
 18004,'LD',1,   1,   1,    88.460,    23.940,     0.000,     0.000,     0.000,     0.000,   2
 18204,'LD',1,   9,   1,    31.660,    10.400,     0.000,     0.000,     0.000,     0.000,   2
 18304,'LD',1,   9,   1,     5.700,     1.140,     0.000,     0.000,     0.000,     0.000,   2
 18402,'LD',1,   6,   1,     1.400,     2.530,     0.000,     0.000,     0.000,     0.000,   2
 18404,'LD',1,   6,   1,    25.520,    10.860,     0.000,     0.000,     0.000,     0.000,   2
 18501,'LD',1,   2,   1,    30.300,     9.960,     0.000,     0.000,     0.000,     0.000,   2
 18604,'LD',1,   9,   1,    33.490,     8.880,     0.000,     0.000,     0.000,     0.000,   2
 18701,'DM',1,   2,   2,    22.800,     7.500,     0.000,     0.000,     0.000,     0.000,   5
 18701,'LD',1,   2,   1,    17.430,     3.620,     0.000,     0.000,     0.000,     0.000,   2
 18804,'LD',1,   3,   1,    25.710,    10.730,     0.000,     0.000,     0.000,     0.000,   2
 19004,'LD',1,   6,   1,    58.230,    19.720,     0.000,     0.000,     0.000,     0.000,   2
 19204,'LD',1,   3,   1,    23.470,     6.330,     0.000,     0.000,     0.000,     0.000,   2
 19471,'HL',1,   8,   2,    10.800,     3.880,     0.000,     0.000,     0.000,     0.000,   4
 19504,'LD',1,   9,   1,    25.060,     6.830,     0.000,     0.000,     0.000,     0.000,   2
 19601,'LD',1,   3,   1,    21.700,     7.130,     0.000,     0.000,     0.000,     0.000,   2
 20201,'LD',1,   1,   1,    18.950,     7.030,     0.000,     0.000,     0.000,     0.000,   2
 20301,'DM',1,   6,   2,    25.000,     8.190,     0.000,     0.000,     0.000,     0.000,   5
 21004,'LD',1,  10,   1,    56.040,    30.430,     0.000,     0.000,     0.000,     0.000,   2
 21204,'LD',1,   4,   1,    22.210,    13.500,     0.000,     0.000,     0.000,     0.000,   2
 21404,'LD',1,   5,   1,    35.770,     8.540,     0.000,     0.000,     0.000,     0.000,   2
 21604,'LD',1,   5,   1,    38.730,     8.090,     0.000,     0.000,     0.000,     0.000,   2
 21804,'LD',1,  10,   1,    98.680,    28.800,     0.000,     0.000,     0.000,     0.000,   2
 22204,'LD',1,   3,   1,    42.160,    13.240,     0.000,     0.000,     0.000,     0.000,   2
 22404,'LD',1,   5,   1,    16.590,     5.460,     0.000,     0.000,     0.000,     0.000,   2
 22501,'LD',1,   1,   1,     7.710,     2.450,     0.000,     0.000,     0.000,     0.000,   2
 22671,'HL',0,   8,   1,     0.300,     0.100,     0.000,     0.000,     0.000,     0.000,   1
 22672,'HL',0,   8,   1,     0.300,     0.100,     0.000,     0.000,     0.000,     0.000,   1
 22804,'LD',1,   9,   1,    27.450,     8.540,     0.000,     0.000,     0.000,     0.000,   2
 23001,'LD',1,   8,   1,     7.520,     2.470,     0.000,     0.000,     0.000,     0.000,   2
 23601,'LD',1,   4,   1,    14.010,     4.670,     0.000,     0.000,     0.000,     0.000,   2
 23604,'LD',1,   4,   1,    47.610,    12.990,     0.000,     0.000,     0.000,     0.000,   2
 24804,'LD',1,   2,   1,    72.900,    20.740,     0.000,     0.000,     0.000,     0.000,   2
 25604,'LD',1,   2,   1,    84.930,    16.390,     0.000,     0.000,     0.000,     0.000,   2
 26802,'DM',1,   9,   2,    11.870,     3.900,     0.000,     0.000,     0.000,     0.000,   5
 27004,'LD',1,   1,   1,    61.160,    32.590,     0.000,     0.000,     0.000,     0.000,   2
 27204,'LD',1,   2,   1,    68.390,    23.250,     0.000,     0.000,     0.000,     0.000,   2
 27404,'LD',1,   6,   1,    26.850,     8.830,     0.000,     0.000,     0.000,     0.000,   2
 27471,'HL',0,   6,   1,     3.000,     1.080,     0.000,     0.000,     0.000,     0.000,   3
 27472,'HL',0,   6,   1,     3.000,     1.080,     0.000,     0.000,     0.000,     0.000,   3
 27473,'HL',0,   6,   1,     7.990,     2.870,     0.000,     0.000,     0.000,     0.000,   3
 27604,'LD',1,   1,   1,    66.520,    25.520,     0.000,     0.000,     0.000,     0.000,   2
 27801,'LD',1,   9,   1,    15.750,     7.870,     0.000,     0.000,     0.000,     0.000,   2
 27804,'LD',1,   9,   1,    90.230,    34.770,     0.000,     0.000,     0.000,     0.000,   2
 28201,'DM',1,   9,   2,    17.000,     5.600,     0.000,     0.000,     0.000,     0.000,   5
 28201,'MI',0,   9,   2,     3.890,     1.160,     0.000,     0.000,     0.000,     0.000,   5
 28204,'LD',1,   9,   1,    11.390,     3.420,     0.000,     0.000,     0.000,     0.000,   2
 28571,'HL',1,   3,   1,     8.710,     3.130,     0.000,     0.000,     0.000,     0.000,   1
 28601,'DM',1,   1,   2,     5.890,     1.900,     0.000,     0.000,     0.000,     0.000,   5
 28601,'LD',1,   1,   1,    -5.630,    -1.820,     0.000,     0.000,     0.000,     0.000,   2
 28604,'LD',1,   1,   1,    63.900,     6.150,     0.000,     0.000,     0.000,     0.000,   2
 28804,'LD',1,   3,   1,    13.780,     5.840,     0.000,     0.000,     0.000,     0.000,   2
 29401,'LD',1,   1,   1,    27.930,     9.180,     0.000,     0.000,     0.000,     0.000,   2
 29501,'LD',1,   1,   1,     6.490,     2.050,     0.000,     0.000,     0.000,     0.000,   2
 29672,'HL',1,   2,   2,     7.000,     2.520,     0.000,     0.000,     0.000,     0.000,   4
 29801,'LD',1,   3,   1,    10.150,     1.140,     0.000,     0.000,     0.000,     0.000,   2
 30804,'LD',1,   1,   1,    58.440,    21.640,     0.000,     0.000,     0.000,     0.000,   2
 31004,'LD',1,   5,   1,    32.220,    10.590,     0.000,     0.000,     0.000,     0.000,   2
 31271,'HL',1,   2,   2,     6.930,     2.490,     0.000,     0.000,     0.000,     0.000,   4
 32201,'LD',1,   3,   1,    13.120,     4.320,     0.000,     0.000,     0.000,     0.000,   2
 32204,'LD',1,   3,   1,   104.280,    28.440,     0.000,     0.000,     0.000,     0.000,   2
 32404,'LD',1,   8,   1,    37.660,    15.880,     0.000,     0.000,     0.000,     0.000,   2
 32604,'LD',1,   6,   1,    82.360,    34.970,     0.000,     0.000,     0.000,     0.000,   2
 33004,'LD',1,   7,   1,    42.400,    13.440,     0.000,     0.000,     0.000,     0.000,   2
 33201,'DM',1,  10,   2,    24.220,     8.000,     0.000,     0.000,     0.000,     0.000,   5
 33801,'DM',1,   8,   2,    11.730,     3.900,     0.000,     0.000,     0.000,     0.000,   5
 34001,'LD',1,   5,   1,     2.730,     0.470,     0.000,     0.000,     0.000,     0.000,   2
 34201,'DM',1,   1,   2,    22.420,     7.400,     0.000,     0.000,     0.000,     0.000,   5
 34201,'LD',1,   1,   1,    11.550,     1.900,     0.000,     0.000,     0.000,     0.000,   2
 34301,'DM',1,   1,   2,    23.750,     7.800,     0.000,     0.000,     0.000,     0.000,   5
 34404,'LD',1,   6,   1,    21.640,     7.060,     0.000,     0.000,     0.000,     0.000,   2
 35004,'LD',1,   9,   1,    15.220,     4.770,     0.000,     0.000,     0.000,     0.000,   2
 35074,'HL',1,   9,   1,     8.100,     2.910,     0.000,     0.000,     0.000,     0.000,   3
 35404,'LD',1,   7,   1,    77.120,    30.410,     0.000,     0.000,     0.000,     0.000,   2
 35604,'LD',1,  10,   1,    31.670,     9.110,     0.000,     0.000,     0.000,     0.000,   2
 35771,'HL',1,   3,   1,    10.800,     3.880,     0.000,     0.000,     0.000,     0.000,   1
 35804,'LD',1,   9,   1,    72.040,    36.100,     0.000,     0.000,     0.000,     0.000,   2
 36001,'LD',1,   3,   1,    23.170,    10.340,     0.000,     0.000,     0.000,     0.000,   2
 37501,'DM',1,   1,   2,     6.180,     2.000,     0.000,     0.000,     0.000,     0.000,   5
 37501,'LD',1,   1,   1,     7.360,     2.410,     0.000,     0.000,     0.000,     0.000,   2
 37601,'LD',1,   2,   1,    36.580,     8.620,     0.000,     0.000,     0.000,     0.000,   2
 37602,'DM',1,   2,   2,     5.000,     1.600,     0.000,     0.000,     0.000,     0.000,   5
 37602,'MI',0,   2,   2,     5.440,     1.630,     0.000,     0.000,     0.000,     0.000,   5
 38001,'LD',1,   3,   1,    10.430,     3.430,     0.000,     0.000,     0.000,     0.000,   2
 38004,'LD',1,   3,   1,    34.400,    11.280,     0.000,     0.000,     0.000,     0.000,   2
 38204,'LD',1,  10,   1,    47.890,    18.430,     0.000,     0.000,     0.000,     0.000,   2
 38601,'LD',1,   1,   1,     8.830,     2.280,     0.000,     0.000,     0.000,     0.000,   2
 38701,'LD',1,   1,   1,     8.830,     2.280,     0.000,     0.000,     0.000,     0.000,   2
 38804,'LD',1,   3,   1,     8.490,     4.990,     0.000,     0.000,     0.000,     0.000,   2
 39471,'HL',1,   4,   1,    18.570,     6.680,     0.000,     0.000,     0.000,     0.000,   3
 39472,'HL',1,   7,   1,    18.570,     6.680,     0.000,     0.000,     0.000,     0.000,   3
 39473,'HL',1,   4,   1,    18.570,     6.680,     0.000,     0.000,     0.000,     0.000,   3
 39601,'LD',1,   3,   1,    23.070,     7.590,     0.000,     0.000,     0.000,     0.000,   2
 39672,'HL',0,   3,   1,     3.000,     1.080,     0.000,     0.000,     0.000,     0.000,   3
 39675,'HL',0,   3,   1,     5.000,     1.800,     0.000,     0.000,     0.000,     0.000,   3
 39801,'DM',1,   7,   2,    25.650,     8.400,     0.000,     0.000,     0.000,     0.000,   5
 40001,'LD',1,   9,   1,    16.520,     4.560,     0.000,     0.000,     0.000,     0.000,   2
 40004,'LD',1,   9,   1,    40.440,    15.820,     0.000,     0.000,     0.000,     0.000,   2
 40204,'LD',1,   3,   1,    25.280,     8.300,     0.000,     0.000,     0.000,     0.000,   2
 40404,'LD',1,   9,   1,    37.130,     9.220,     0.000,     0.000,     0.000,     0.000,   2
 40601,'LD',1,  10,   1,     3.190,     1.030,     0.000,     0.000,     0.000,     0.000,   2
 40602,'DM',1,  10,   2,     7.600,     2.500,     0.000,     0.000,     0.000,     0.000,   5
 40604,'LD',1,  10,   1,    22.720,     6.830,     0.000,     0.000,     0.000,     0.000,   2
 40801,'LD',1,   8,   1,    19.690,     6.480,     0.000,     0.000,     0.000,     0.000,   2
 42004,'LD',1,   8,   1,    37.930,    12.190,     0.000,     0.000,     0.000,     0.000,   2
 42102,'DM',1,   1,   2,     7.220,     2.400,     0.000,     0.000,     0.000,     0.000,   5
 42102,'LD',1,   1,   1,    17.880,     5.880,     0.000,     0.000,     0.000,     0.000,   2
 42204,'LD',1,  10,   1,    81.330,    25.970,     0.000,     0.000,     0.000,     0.000,   2
 42604,'LD',1,   7,   1,    32.460,    10.670,     0.000,     0.000,     0.000,     0.000,   2
 42802,'DM',1,   1,   2,    26.000,     8.500,     0.000,     0.000,     0.000,     0.000,   5
 43604,'LD',1,   7,   1,    29.910,     9.830,     0.000,     0.000,     0.000,     0.000,   2
 44001,'LD',1,   1,   1,    15.800,     5.300,     0.000,     0.000,     0.000,     0.000,   2
 44671,'HL',1,   2,   1,     5.500,     1.980,     0.000,     0.000,     0.000,     0.000,   3
 44672,'HL',1,   2,   1,     5.500,     1.980,     0.000,     0.000,     0.000,     0.000,   3
 44673,'HL',0,   2,   1,    12.990,     4.670,     0.000,     0.000,     0.000,     0.000,   3
 44804,'LD',1,   8,   1,    51.430,    15.710,     0.000,     0.000,     0.000,     0.000,   2
 44901,'DM',1,   1,   2,    20.900,     6.900,     0.000,     0.000,     0.000,     0.000,   5
 44901,'LD',1,   1,   1,     9.410,     2.700,     0.000,     0.000,     0.000,     0.000,   2
 45001,'DM',1,  10,   2,    54.620,    17.100,     0.000,     0.000,     0.000,     0.000,   5
 45101,'LD',1,   1,   1,    17.090,     3.420,     0.000,     0.000,     0.000,     0.000,   2
 46210,'DM',1,   2,   2,    24.000,     7.900,     0.000,     0.000,     0.000,     0.000,   5
 46214,'DM',1,   2,   2,    26.000,     8.500,     0.000,     0.000,     0.000,     0.000,   5
 46224,'DM',1,   2,   2,    31.000,    10.190,     0.000,     0.000,     0.000,     0.000,   5
 46501,'LD',1,   1,   1,    11.650,     3.830,     0.000,     0.000,     0.000,     0.000,   2
 46804,'LD',1,   7,   1,    23.810,     8.090,     0.000,     0.000,     0.000,     0.000,   2
 47004,'LD',1,   9,   1,    38.390,    12.990,     0.000,     0.000,     0.000,     0.000,   2
 47402,'DM',1,   2,   2,    15.200,     5.000,     0.000,     0.000,     0.000,     0.000,   5
 47601,'LD',1,   3,   1,     5.920,     1.950,     0.000,     0.000,     0.000,     0.000,   2
 49474,'HL',1,   5,   1,    11.260,     4.050,     0.000,     0.000,     0.000,     0.000,   3
 49501,'LD',1,   9,   1,    11.390,     3.420,     0.000,     0.000,     0.000,     0.000,   2
 49504,'LD',1,   9,   1,    52.170,    12.530,     0.000,     0.000,     0.000,     0.000,   2
 49604,'LD',1,  10,   1,    71.660,    27.650,     0.000,     0.000,     0.000,     0.000,   2
 49701,'LD',1,   6,   1,    14.810,     4.100,     0.000,     0.000,     0.000,     0.000,   2
 49804,'LD',1,   9,   1,    70.050,    25.730,     0.000,     0.000,     0.000,     0.000,   2
 50004,'LD',1,   9,   1,    31.060,    10.620,     0.000,     0.000,     0.000,     0.000,   2
 50276,'HL',1,   2,   1,     9.990,     3.590,     0.000,     0.000,     0.000,     0.000,   3
 50301,'LD',1,   1,   1,    14.810,     4.860,     0.000,     0.000,     0.000,     0.000,   2
 50573,'HL',1,   7,   2,     0.920,     0.330,     0.000,     0.000,     0.000,     0.000,   4
 50574,'HL',1,   7,   2,     0.920,     0.330,     0.000,     0.000,     0.000,     0.000,   4
 50604,'LD',1,   6,   1,    27.450,     9.330,     0.000,     0.000,     0.000,     0.000,   2
 50901,'LD',1,   7,   1,    13.670,     3.760,     0.000,     0.000,     0.000,     0.000,   2
 51301,'LD',1,   1,   1,    11.480,     2.730,     0.000,     0.000,     0.000,     0.000,   2
 51471,'HL',0,   7,   1,     3.000,     1.080,     0.000,     0.000,     0.000,     0.000,   3
...
0 / END OF LOAD DATA, BEGIN GENERATOR DATA
 10204,'2 ',     0.231,    -0.070,    -0.070,    -0.070,1.04000,     0,     0.895,   0.00000,   0.25400,   0.00000,   0.20000,1.00000,1,  100.0,     0.660,     0.000,   4,1.0000
 10204,'3 ',     2.625,    -0.820,    -0.820,    -0.820,1.04000,     0,     8.625,   0.00000, 999.00000,   0.00000,   0.20000,1.00000,1,  100.0,     7.500,     0.000,   2,1.0000
 10271,'1 ',    21.000,    15.000,    15.000,    -7.000,1.07500,  1021,    34.000,   0.00000,   0.26000,   0.00000,   0.00000,1.00000,1,   15.0,    21.000,     5.000,   3,1.0000
 10272,'2 ',    21.000,    15.000,    15.000,    -7.000,1.07500,  1021,    34.000,   0.00000,   0.26000,   0.00000,   0.00000,1.00000,1,   15.0,    22.000,     5.000,   3,1.0000
 10273,'3 ',    21.000,    15.000,    15.000,    -7.000,1.07500,  1021,    34.000,   0.00000,   0.26000,   0.00000,   0.00000,1.00000,1,   15.0,    19.000,     5.000,   3,1.0000
 10274,'4 ',    21.000,    15.000,    15.000,    -7.000,1.07500,  1021,    34.000,   0.00000,   0.25000,   0.00000,   0.00000,1.00000,1,   15.0,    24.000,     5.000,   3,1.0000
 10471,'1 ',   260.000,    71.865,   153.000,   -53.000,1.07500,  1042,   318.800,   0.00000,   0.26400,   0.00000,   0.00000,1.00000,1,  153.0,   270.000,    40.000,   3,1.0000
 10472,'11',    90.000,     0.000,    60.000,   -30.000,1.07500,  1072,   100.900,   0.00000,   0.14700,   0.00000,   0.00000,1.00000,0,   60.0,    90.000,    20.000,   3,1.0000
 10473,'12',    90.000,     0.000,    60.000,   -30.000,1.07500,  1052,   100.900,   0.00000,   0.14700,   0.00000,   0.00000,1.00000,0,   60.0,    90.000,    20.000,   3,1.0000
 10474,'14',    90.000,     0.000,    60.000,   -30.000,1.07500,  1072,   100.900,   0.00000,   0.14700,   0.00000,   0.00000,1.00000,0,   60.0,    90.000,    20.000,   3,1.0000
 10475,'5 ',    52.300,     0.000,    32.600,   -22.700,1.07500,  1041,    62.000,   0.00000,   0.25400,   0.00000,   0.00000,1.00000,0,   32.6,    52.300,     1.200,   3,1.0000
 10602,'1 ',     0.420,    -0.130,    -0.130,    -0.130,1.04000,     0,     1.380,   0.00000,   0.25400,   0.00000,   0.20000,1.00000,1,  100.0,     1.200,     0.000,   4,1.0000
 10602,'2 ',     1.680,    -0.520,    -0.520,    -0.520,1.04000,     0,     5.520,   0.00000,   0.25400,   0.00000,   0.20000,1.00000,1,  100.0,     4.800,     0.000,   4,1.0000
 10602,'3 ',     1.750,    -0.550,    -0.550,    -0.550,1.04000,     0,     5.750,   0.00000,   0.25400,   0.00000,   0.20000,1.00000,1,  100.0,     5.000,     0.000,   4,1.0000
 10602,'5 ',     1.890,    -2.300,    -1.770,    -2.300,1.04000,     0,     7.050,   0.00000,   0.25400,   0.00000,   0.05640,1.00000,1,  100.0,     5.400,     0.000,   2,1.0000
 11204,'1 ',     8.820,    -2.750,    -2.750,    -2.750,1.04000,     0,    29.000,   0.00000,   0.25400,   0.00000,   0.20000,1.00000,1,  100.0,    25.200,     0.000,   2,1.0000
 11371,'1 ',    17.850,    -7.228,    11.900,   -11.900,1.07500,  1131,    58.650,   0.00000,   0.25400,   0.00000,   0.00000,1.00000,1,  100.0,    51.000,     0.000,   4,1.0000
 11402,'1 ',     1.487,    -1.400,    -1.400,    -1.810,1.04000,     0,     4.475,   0.00000,   0.25400,   0.00000,   0.06000,1.00000,1,  100.0,     4.250,     0.000,   1,1.0000
 12371,'1 ',    14.700,     9.700,     9.700,    -9.700,1.07500,  1231,    42.000,   0.00000,   0.25400,   0.00000,   0.00000,1.00000,1,  100.0,    42.000,     0.000,   4,1.0000
 12571,'1 ',     6.807,     4.490,     4.490,    -4.490,1.07500,  1251,    23.925,   0.00000,   0.25400,   0.00000,   0.00000,1.00000,1,  100.0,    19.450,     0.000,   4,1.0000
 12804,'1 ',     2.975,    -0.930,    -0.930,    -0.930,1.04000,     0,     8.950,   0.00000,   0.25400,   0.00000,   0.20000,1.00000,1,  100.0,     8.500,     0.000,   2,1.0000
 12804,'2 ',     6.842,    -2.140,    -2.140,    -2.140,1.04000,     0,    20.585,   0.00000,   0.25400,   0.00000,   0.20000,1.00000,1,  100.0,    19.550,     0.000,   2,1.0000
 13302,'1 ',     5.057,    -2.382,     2.030,    -3.360,1.00000,     0,    15.215,   0.00000,   0.25400,   0.00000,   0.06000,1.00000,1,  100.0,    14.450,     0.000,   2,1.0000
 13302,'2 ',     1.750,    -0.824,     0.700,    -1.190,1.00000,     0,     5.520,   0.00000,   0.25400,   0.00000,   0.00000,1.00000,1,  100.0,     5.000,     0.000,   2,1.0000
 13312,'1 ',     1.400,    -1.310,    -1.310,    -1.700,1.07500,  1331,     4.700,   0.00000,   0.25400,   0.00000,   0.56400,1.00000,1,  100.0,     4.000,     0.000,   1,1.0000
 13312,'2 ',     1.400,    -1.310,    -1.310,    -1.700,1.07500,  1331,     4.030,   0.00000,   0.25400,   0.00000,   0.06717,1.00000,1,  100.0,     4.000,     0.000,   1,1.0000
 13312,'3 ',     1.260,    -1.180,    -1.180,    -1.530,1.07500,  1331,     3.600,   0.00000,   0.25400,   0.00000,   0.05400,1.00000,1,  100.0,     3.600,     0.000,   1,1.0000
 13312,'4 ',     5.180,     3.430,     3.430,    -3.430,1.07500,  1331,    17.350,   0.00000,   0.25400,   0.00000,   0.05627,1.00000,1,  100.0,    14.800,     0.000,   1,1.0000
 13404,'1 ',     0.231,    -0.070,    -0.070,    -0.070,1.04000,     0,     0.759,   0.00000,   0.25400,   0.00000,   0.20000,1.00000,1,  100.0,     0.660,     0.000,   4,1.0000
 13404,'2 ',     0.893,    -0.280,    -0.280,    -0.280,1.04000,     0,     2.685,   0.00000,   0.25400,   0.00000,   0.20000,1.00000,1,  100.0,     2.550,     0.000,   2,1.0000
 13404,'3 ',     4.165,    -1.300,    -1.300,    -1.300,1.04000,     0,    13.685,   0.00000,   0.25400,   0.00000,   0.20000,1.00000,1,  100.0,    11.900,     0.000,   2,1.0000
 13404,'4 ',     5.250,    -1.640,    -1.640,    -1.640,1.04000,     0,    17.170,   0.00000,   0.25400,   0.00000,   0.20000,1.00000,1,  100.0,    15.000,     0.000,   2,1.0000
 13404,'5 ',     2.100,    -0.660,    -0.660,    -0.660,1.04000,     0,     6.900,   0.00000,   0.25400,   0.00000,   0.20000,1.00000,1,  100.0,     6.000,     0.000,   2,1.0000
 13404,'6 ',     2.678,    -0.840,    -0.840,    -0.840,1.04000,     0,     8.055,   0.00000,   0.25400,   0.00000,   0.20000,1.00000,1,  100.0,     7.650,     0.000,   2,1.0000
 14002,'3 ',     2.257,    -0.700,    -0.700,    -0.700,1.04000,     0,     7.418,   0.00000,   0.25400,   0.00000,   0.10000,1.00000,1,  100.0,     6.450,     0.000,   3,1.0000
 14404,'1 ',     1.575,    -0.490,    -0.490,    -0.490,1.04000,     0,     5.151,   0.00000,   0.25400,   0.00000,   0.20000,1.00000,1,  100.0,     4.500,     0.000,   2,1.0000
 14604,'1 ',     0.000,     0.077,     1.000,    -1.000,1.05000,     0,     7.000,   0.00000,   0.14800,   0.00000,   0.10000,1.00000,1,    1.0,     4.800,     0.000,   5,1.0000
 14804,'1 ',     0.595,    -0.190,    -0.190,    -0.190,1.04000,     0,     1.790,   0.00000,   0.25400,   0.00000,   0.20000,1.00000,1,  100.0,     1.700,     0.000,   4,1.0000
 16371,'1 ',     1.190,    -0.770,     0.490,    -0.770,1.01500, 16302,     3.580,   0.00000,   0.25400,   0.00000,   0.10000,1.00000,1,  100.0,     3.400,     0.000,   1,1.0000
 16372,'2 ',     1.190,    -0.770,     0.490,    -0.770,1.00000,     0,     3.580,   0.00000,   0.25400,   0.00000,   0.10000,1.00000,1,  100.0,     3.400,     0.000,   1,1.0000
 16373,'3 ',     2.380,    -1.161,     0.980,    -1.610,1.01500, 16302,     7.160,   0.00000,   0.25400,   0.00000,   0.10000,1.00000,1,  100.0,     6.800,     0.000,   1,1.0000
 16374,'4 ',     2.660,    -1.161,     1.760,    -1.760,1.01500, 16302,     8.055,   0.00000,   0.25400,   0.00000,   0.10000,1.00000,1,  100.0,     7.600,     0.000,   1,1.0000
 16375,'5 ',     1.487,    -0.980,     0.980,    -0.980,1.01500, 16302,     4.475,   0.00000,   0.25400,   0.00000,   0.10000,1.00000,1,  100.0,     4.250,     0.000,   1,1.0000
 16376,'6 ',     1.732,    -0.540,    -0.540,    -0.540,1.00000,     0,     5.370,   0.00000,   0.25400,   0.00000,   0.10000,1.00000,1,  100.0,     4.950,     0.000,   4,1.0000
 16377,'1 ',     3.150,     2.100,     2.100,    -2.100,1.07500,  1631,     9.570,   0.00000,   0.25400,   0.00000,   0.00000,1.00000,1,  100.0,     9.000,     0.000,   1,1.0000
 16378,'1 ',     0.559,    -0.530,    -0.530,    -0.680,1.04000,     0,     1.790,   0.00000,   0.25400,   0.00000,   0.00000,1.00000,1,  100.0,     1.598,     0.000,   1,1.0000
 16571,'1 ',    13.230,     8.770,     8.770,    -8.770,1.07500,  1651,    39.000,   0.00000,   0.25400,   0.00000,   0.00000,1.00000,1,  100.0,    37.800,     0.000,   4,1.0000
 16602,'1 ',     1.190,    -0.370,    -0.370,    -0.370,1.04000,     0,     3.580,   0.00000,   0.25400,   0.00000,   0.06000,1.00000,1,  100.0,     3.400,     0.000,   4,1.0000
 16602,'2 ',     0.595,    -0.560,    -0.560,    -0.730,1.04000,     0,     1.790,   0.00000,   0.25400,   0.00000,   0.06000,1.00000,1,  100.0,     1.700,     0.000,   1,1.0000
 16604,'2 ',     6.545,    -2.040,    -2.040,    -2.040,1.00000,     0,    19.690,   0.00000,   0.25400,   0.00000,   0.20000,1.00000,1,  100.0,    18.700,     0.000,   4,1.0000
 16604,'3 ',     0.735,    -0.230,    -0.230,    -0.230,1.00000,     0,     2.300,   0.00000,   0.25400,   0.00000,   0.00000,1.00000,1,  100.0,     2.100,     0.000,   2,1.0000
 16612,'1 ',     2.975,    -2.790,    -2.790,    -3.620,1.04000,     0,     8.950,   0.00000,   0.25400,   0.00000,   0.06000,1.00000,1,  100.0,     8.500,     0.000,   1,1.0000
 16873,'3 ',     8.000,     7.000,     7.000,    -1.000,1.07500,  1681,    11.500,   0.00000,   0.31700,   0.00000,   0.00000,1.00000,1,    7.0,     8.000,     2.000,   3,1.0000
 17004,'5 ',     0.693,    -0.220,    -0.220,    -0.220,1.04000,     0,     3.100,   0.00000,   0.25400,   0.00000,   0.20000,1.00000,1,  100.0,     1.980,     0.000,   4,1.0000
 17004,'6 ',     0.385,    -0.120,    -0.120,    -0.120,1.04000,     0,     1.500,   0.00000,   0.25400,   0.00000,   0.20000,1.00000,1,  100.0,     1.100,     0.000,   4,1.0000
 17004,'7 ',     1.190,    -0.370,    -0.370,    -0.370,1.04000,     0,     3.580,   0.00000,   0.25400,   0.00000,   0.20000,1.00000,1,  100.0,     3.400,     0.000,   2,1.0000
 17073,'3 ',    22.500,     0.482,     7.000,   -10.000,1.05000,  1701,    30.000,   0.00000,   0.25400,   0.00000,   0.00000,1.00000,1,    7.0,    22.500,     5.000,   3,1.0000
 17074,'4 ',    22.500,     0.482,     7.000,   -10.000,1.05000,  1701,    30.000,   0.00000,   0.25400,   0.00000,   0.00000,1.00000,1,    7.0,    22.500,     5.000,   3,1.0000
 17671,'1 ',    10.000,     0.482,     7.000,    -3.000,1.05000,  1701,    12.500,   0.00000,   0.19000,   0.00000,   0.00000,1.00000,1,    7.0,    10.000,     3.000,   3,1.0000
 17672,'2 ',     0.000,     0.482,     7.000,    -3.000,1.05000,  1701,    12.500,   0.00000,   0.19000,   0.00000,   0.00000,1.00000,1,    7.0,    10.000,     3.000,   3,1.0000
 17771,'1 ',    14.429,     9.590,     9.590,    -9.590,1.07500,  2771,    42.925,   0.00000,   0.25400,   0.00000,   0.00000,1.00000,1,  100.0,    41.225,     0.000,   4,1.0000
 18404,'1 ',     1.747,    -0.550,    -0.550,    -0.550,1.04000,     0,     5.739,   0.00000,   0.25400,   0.00000,   0.20000,1.00000,1,  100.0,     4.990,     0.000,   2,1.0000
 18802,'1 ',     1.050,    -0.330,    -0.330,    -0.330,1.04000,     0,     3.125,   0.00000,   0.25400,   0.00000,   0.07962,1.00000,1,  100.0,     3.000,     0.000,   1,1.0000
 19071,'1 ',     0.893,    -0.280,    -0.280,    -0.280,1.04000,     0,     2.685,   0.00000,   0.25400,   0.00000,   0.06000,1.00000,1,  100.0,     2.550,     0.000,   4,1.0000
 19071,'2 ',     0.595,    -0.730,    -0.560,    -0.730,1.04000,     0,     1.790,   0.00000,   0.25400,   0.00000,   0.06000,1.00000,1,  100.0,     1.700,     0.000,   4,1.0000
 19072,'1 ',     1.750,    -0.550,    -0.550,    -0.550,1.04000,     0,     7.050,   0.00000,   0.25400,   0.00000,   0.05640,1.00000,1,  100.0,     4.999,     0.000,   4,1.0000
 19072,'2 ',     1.575,    -0.490,    -0.490,    -0.490,1.04000,     0,     4.700,   0.00000,   0.25400,   0.00000,   0.05647,1.00000,1,  100.0,     4.500,     0.000,   4,1.0000
 19073,'1 ',     7.350,    -6.900,    -6.900,    -8.950,1.04000,     0,    21.875,   0.00000,   0.25400,   0.00000,   0.07962,1.00000,1,  100.0,    21.000,     0.000,   4,1.0000
 19371,'1 ',    12.180,     8.120,     8.120,    -8.120,1.07500,  1931,    36.500,   0.00000,   0.25400,   0.00000,   0.00000,1.00000,1,  100.0,    34.800,     0.000,   4,1.0000
 19471,'1 ',   120.000,    75.000,    75.000,   -50.000,1.07500,  1941,   153.000,   0.00000,   0.18800,   0.00000,   0.00000,1.00000,1,   75.0,   130.000,    60.000,   4,1.0000
 19771,'1 ',    14.875,     5.950,     5.950,    -9.940,1.07500,  1971,    45.000,   0.00000,   0.25400,   0.00000,   0.00000,1.00000,1,  100.0,    42.500,     0.000,   4,1.0000
 19902,'1 ',    14.490,     9.660,     9.660,    -9.660,1.07500,  1991,    41.400,   0.00000,   0.25400,   0.00000,   0.00000,1.00000,1,  100.0,    41.400,     0.000,   1,1.0000
 21004,'1 ',     2.625,    -0.820,    -0.820,    -0.820,1.04000,     0,     8.625,   0.00000,   0.25400,   0.00000,   0.20000,1.00000,1,  100.0,     7.500,     0.000,   4,1.0000
 21004,'2 ',     0.175,    -0.050,    -0.050,    -0.050,1.04000,     0,     0.895,   0.00000,   0.25400,   0.00000,   0.20000,1.00000,1,  100.0,     0.500,     0.000,   2,1.0000
 21402,'1 ',     0.595,    -0.560,    -0.560,    -0.730,1.04000,     0,     1.790,   0.00000,   0.25400,   0.00000,   0.06000,1.00000,1,  100.0,     1.700,     0.000,   1,1.0000
 21802,'1 ',     0.595,    -0.190,    -0.190,    -0.190,1.04000,     0,     1.790,   0.00000,   0.25400,   0.00000,   0.06000,1.00000,1,  100.0,     1.700,     0.000,   4,1.0000
 21802,'2 ',     1.050,    -0.990,    -0.990,    -1.280,1.04000,     0,     3.125,   0.00000,   0.25400,   0.00000,   0.07962,1.00000,1,  100.0,     3.000,     0.000,   1,1.0000
 22204,'1 ',     1.617,    -0.500,    -0.500,    -0.500,1.04000,     0,     5.313,   0.00000,   0.25400,   0.00000,   0.20000,1.00000,1,  100.0,     4.620,     0.000,   3,1.0000
 22204,'2 ',     2.079,    -0.650,    -0.650,    -0.650,1.04000,     0,     6.831,   0.00000,   0.25400,   0.00000,   0.20000,1.00000,1,  100.0,     5.940,     0.000,   3,1.0000
 22204,'3 ',     2.082,    -0.650,    -0.650,    -0.650,1.04000,     0,     6.868,   0.00000,   0.25400,   0.00000,   0.20000,1.00000,1,  100.0,     5.950,     0.000,   4,1.0000
 22204,'4 ',     1.487,    -0.460,    -0.460,    -0.460,1.04000,     0,     5.000,   0.00000,   0.20000,   0.00000,   0.20000,1.00000,1,  100.0,     4.250,     0.000,   4,1.0000
 22371,'1 ',    20.825,     8.330,     8.330,   -13.880,1.07500,  2231,    62.650,   0.00000,   0.25400,   0.00000,   0.00000,1.00000,1,  100.0,    59.500,     0.000,   4,1.0000
 22404,'1 ',     0.893,    -0.280,    -0.280,    -0.280,1.04000,     0,     2.685,   0.00000,   0.20000,   0.00000,   0.20000,1.00000,1,  100.0,     2.550,     0.000,   4,1.0000
 22404,'2 ',     1.487,    -0.460,    -0.460,    -0.460,1.04000,     0,     5.000,   0.00000,   0.20000,   0.00000,   0.20000,1.00000,1,  100.0,     4.250,     0.000,   4,1.0000
 22671,'1 ',    52.100,     0.000,    32.600,   -22.700,1.07500,  2261,    62.000,   0.00000,   0.25400,   0.00000,   0.00000,1.00000,0,   32.6,    52.100,     1.200,   3,1.0000
 22672,'2 ',    52.100,     0.000,    32.600,   -22.700,1.07500,  2261,    62.000,   0.00000,   0.25400,   0.00000,   0.00000,1.00000,0,   32.6,    52.100,     1.200,   3,1.0000
 22802,'1 ',     0.893,    -0.840,    -0.840,    -1.090,1.04000,     0,     2.685,   0.00000,   0.25400,   0.00000,   0.06000,1.00000,1,  100.0,     2.550,     0.000,   1,1.0000
 26702,'1 ',    11.034,     7.350,     7.350,    -7.350,1.07500,  2671,    32.500,   0.00000,   0.25400,   0.00000,   0.00000,1.00000,1,  100.0,    31.525,     0.000,   4,1.0000
 26703,'1 ',     9.345,     6.230,     6.230,    -6.230,1.07500,  2671,    26.700,   0.00000,   0.25400,   0.00000,   0.00000,1.00000,1,  100.0,    26.700,     0.000,   4,1.0000
 27204,'5 ',     0.000,    -1.000,     1.000,    -1.000,1.04000,     0,     5.000,   0.00000,   0.30000,   0.00000,   0.10000,1.00000,1,    1.0,     4.000,     0.000,   3,1.0000
 27371,'1 ',     4.480,     1.820,     1.820,    -3.010,1.07500,  2731,    15.215,   0.00000,   0.25400,   0.00000,   0.00000,1.00000,1,  100.0,    12.800,     0.000,   4,1.0000
 27372,'2 ',     5.950,     2.380,     2.380,    -3.990,1.07500,  2731,    18.750,   0.00000,   0.25400,   0.00000,   0.00000,1.00000,1,  100.0,    17.000,     0.000,   4,1.0000
 27402,'1 ',     1.487,    -1.400,    -1.400,    -1.810,1.04000,     0,     4.475,   0.00000,   0.25400,   0.00000,   0.06000,1.00000,1,  100.0,     4.250,     0.000,   1,1.0000
 27471,'1 ',    57.000,     0.000,    42.000,    -3.000,1.07500,  2741,    75.000,   0.00000,   0.20300,   0.00000,   0.00000,1.00000,0,   42.0,    57.000,    25.000,   3,1.0000
 27472,'2 ',    57.000,     0.000,    40.000,    -3.000,1.07500,  2741,    75.000,   0.00000,   0.20300,   0.00000,   0.00000,1.00000,0,   40.0,    57.000,    25.000,   3,1.0000
 27473,'3 ',   116.000,     0.000,    82.000,   -48.000,1.07500,  2742,   150.000,   0.00000,   0.18500,   0.00000,   0.00000,1.00000,0,   82.0,   116.000,    30.000,   3,1.0000
 27804,'1 ',     1.155,    -0.360,    -0.360,    -0.360,1.04000,     0,     3.795,   0.00000,   0.25400,   0.00000,   0.20000,1.00000,1,  100.0,     3.300,     0.000,   4,1.0000
 27804,'2 ',     0.236,    -0.070,    -0.070,    -0.070,1.04000,     0,     0.776,   0.00000,   0.25400,   0.00000,   0.20000,1.00000,1,  100.0,     0.675,     0.000,   2,1.0000
 28002,'1 ',     5.250,    -2.170,    -2.170,    -2.170,1.00000,     0,    17.250,   0.00000,   0.25400,   0.00000,   0.10000,1.00000,1,  100.0,    15.000,     0.000,   4,1.0000
 28571,'1 ',   400.000,   107.505,   282.100,  -196.800,1.07500,  1062,   535.500,   0.00000,   0.24500,   0.00000,   0.00000,1.00000,1,  282.1,   450.470,   110.100,   4,1.0000
 28804,'2 ',     8.855,    -2.760,    -2.760,    -2.760,1.04000,     0,    28.578,   0.00000,   0.20000,   0.00000,   0.20000,1.00000,1,  100.0,    25.300,     0.000,   4,1.0000
 28814,'1 ',     3.675,    -1.150,    -1.150,    -1.150,1.04000,     0,    12.019,   0.00000,   0.25400,   0.00000,   0.20000,1.00000,1,  100.0,    10.500,     0.000,   2,1.0000
 29671,'ST',   120.000,    28.704,    90.000,   -47.000,1.07500,  2562,   150.000,   0.00000,   0.18800,   0.00000,   0.00000,1.00000,1,   90.0,   120.000,    40.000,   4,1.0000
 29672,'CT',   230.000,    55.176,   173.000,  -106.000,1.07500,  2562,   288.000,   0.00000,   0.17900,   0.00000,   0.00000,1.00000,1,  173.0,   230.000,   138.000,   4,1.0000
 29673,'2 ',   400.000,    79.415,   249.000,  -100.000,1.07500,  2562,   473.000,   0.00500,   0.25600,   0.00000,   0.00000,1.00000,1,  249.0,   400.000,   257.000,   4,1.0000
 30671,'1 ',    15.000,    13.000,    13.000,    -4.000,1.07500,  3061,    21.400,   0.00000,   0.20300,   0.00000,   0.00000,1.00000,1,   13.0,    15.000,     4.000,   3,1.0000
 30671,'2 ',     4.000,     3.000,     3.000,    -1.000,1.07500,  3061,     5.700,   0.00000,   0.17800,   0.00000,   0.00000,1.00000,1,   13.0,     4.000,     1.000,   3,1.0000
 31002,'1 ',     0.893,    -0.280,    -0.280,    -0.280,1.04000,     0,     2.685,   0.00000,   0.25400,   0.00000,   0.06000,1.00000,1,  100.0,     2.550,     0.000,   1,1.0000
 31002,'2 ',     0.298,    -0.280,    -0.280,    -0.360,1.04000,     0,     0.895,   0.00000,   0.25400,   0.00000,   0.06000,1.00000,1,  100.0,     0.850,     0.000,   1,1.0000
 31004,'1 ',     0.893,    -0.280,    -0.280,    -0.280,1.04000,     0,     2.685,   0.00000,   0.25400,   0.00000,   0.20000,1.00000,1,  100.0,     2.550,     0.000,   2,1.0000
 31271,'1 ',   412.000,   138.314,   200.000,  -114.000,1.07500,  3122,   500.000,   0.00000,   0.27000,   0.00000,   0.00000,1.00000,1,  200.0,   409.900,   163.000,   4,1.0000
 32404,'1 ',     4.100,     0.000,     1.000,    -1.000,1.04000,     0,     4.800,   0.00000,   0.25000,   0.00000,   0.06000,1.00000,0,    1.0,     4.100,     0.000,   2,1.0000
 32604,'1 ',     0.000,    -0.403,     1.000,    -1.000,1.05000,     0,     8.500,   0.00000,   0.14800,   0.00000,   0.10000,1.00000,1,    1.0,     7.500,     0.000,   5,1.0000
 33004,'1 ',     3.272,    -1.020,    -1.020,    -1.020,1.04000,     0,     9.845,   0.00000,   0.25400,   0.00000,   0.20000,1.00000,1,  100.0,     9.350,     0.000,   2,1.0000
 35002,'1 ',     1.750,    -1.640,    -1.640,    -2.130,1.04000,     0,     6.045,   0.00000,   0.25400,   0.00000,   0.06717,1.00000,1,  100.0,     5.000,     0.000,   2,1.0000
 35074,'4 ',    90.000,    60.000,    60.000,   -20.000,1.07500,  3501,   121.100,   0.00500,   0.23000,   0.00000,   0.00000,1.00000,1,   60.0,   100.000,    25.000,   3,1.0000
 35771,'1 ',   400.000,    84.701,   250.000,   -80.000,1.07500,  3572,   500.000,   0.00000,   0.22500,   0.00000,   0.00000,1.00000,1,  250.0,   442.960,   222.000,   1,1.0000
 35802,'1 ',     0.893,    -0.280,    -0.280,    -0.280,1.04000,     0,     2.685,   0.00000,   0.25400,   0.00000,   0.06000,1.00000,1,  100.0,     2.550,     0.000,   4,1.0000
 35802,'2 ',     0.893,    -0.280,    -0.280,    -0.280,1.04000,     0,     2.685,   0.00000,   0.25400,   0.00000,   0.06000,1.00000,1,  100.0,     2.550,     0.000,   4,1.0000
 35802,'3 ',     1.190,    -1.120,    -1.120,    -1.450,1.04000,     0,     3.600,   0.00000,   0.25400,   0.00000,   0.05400,1.00000,1,  100.0,     3.400,     0.000,   1,1.0000
 35804,'1 ',     5.250,    -1.640,    -1.640,    -1.640,1.04000,     0,    17.250,   0.00000,   0.25400,   0.00000,   0.20000,1.00000,1,  100.0,    15.000,     0.000,   4,1.0000
 35804,'2 ',     1.743,    -0.540,    -0.540,    -0.540,1.04000,     0,     5.727,   0.00000,   0.25400,   0.00000,   0.20000,1.00000,1,  100.0,     4.980,     0.000,   4,1.0000
 35804,'3 ',     4.158,    -1.300,    -1.300,    -1.300,1.04000,     0,    13.662,   0.00000,   0.25400,   0.00000,   0.20000,1.00000,1,  100.0,    11.880,     0.000,   4,1.0000
 35804,'6 ',     1.785,    -0.560,    -0.560,    -0.560,1.04000,     0,     5.370,   0.00000,   0.25400,   0.00000,   0.20000,1.00000,1,  100.0,     5.100,     0.000,   2,1.0000
 38002,'1 ',     0.595,    -0.560,    -0.560,    -0.730,1.04000,     0,     1.790,   0.00000,   0.25400,   0.00000,   0.06000,1.00000,1,  100.0,     1.700,     0.000,   1,1.0000
 38204,'1 ',     3.675,    -1.150,    -1.150,    -1.150,1.04000,     0,    12.019,   0.00000,   0.25400,   0.00000,   0.20000,1.00000,1,  100.0,    10.500,     0.000,   4,1.0000
...